1

                    Execution started at 20260722.173204         



                    ---------------------------------------
                                     SWAN
                    SIMULATION OF WAVES IN NEAR SHORE AREAS
                             VERSION NUMBER 41.51A              
                    ---------------------------------------


    
 PROJECT 'TEST' '01'
    
 
    
 SET LEVEL 0.0 MAXERR=99 NAUTICAL
    
 
    
 COORDINATES SPHERICAL CCM
    
 
    
 MODE NONSTATIONARY
    
 
    
 CGRID REGULAR -36.79791667 -10.69791667 0.0 1.9875 2.3625 53 63 CIRCLE 36 0.04 1.0
 Number of meshes in sigma-space: MSC-1 =  34
    
 
    
 INPGRID BOTTOM REGULAR -36.79791667 -10.69791667 0.0 53 63 0.0375 0.0375
    
 READINP BOTTOM 1.0 'depth.bot' 3 0 FREE
    
 
    
 INPGRID WIND REGULAR -36.79791667 -10.69791667 0.0 53 63 0.0375 0.0375 NONSTATIONARY 20230101.000000 6 HR 20230103.180000
    
 READINP WIND 1.0 'wind.txt' 3 0 FREE
    
 
    
 BOUND SHAPESPEC JONSWAP 3.3 MEAN DSPR DEGREES
    
 
    
 BOUNDSPEC SIDE EAST CONSTANT FILE 'boundary_east.txt' 1
    
 BOUNDSPEC SIDE SOUTH CONSTANT FILE 'boundary_south.txt' 1
    
 
    
 NUMERIC ACCUR 0.02 0.02 0.02 99.5 NONSTAT 5
    
 
    
 PROP BSBT
    
 
    
 BLOCK 'COMPGRID' NOHEAD 'output.mat' LAY 3 HSIGN TM01 TPS DIR WIND OUTPUT 20230101.000000 6 HR
    
 
    
 COMPUTE NONSTATIONARY 20230101.000000 15 MIN 20230103.180000
 Boundary data type TPAR processed, time:           0.
 Boundary data type TPAR processed, time:           0.
 Time of computation ->  20230101.001500      in sec:        900.
 Boundary data type TPAR processed, time:       21600.
 Boundary data type TPAR processed, time:       21600.

----------------------------------------------------------------
                  COMPUTATIONAL PART OF SWAN
----------------------------------------------------------------

 Gridresolution       : MXC              54 MYC             64
                      : MCGRD          3457
                      : MSC              35 MDC             36
                      : MTC             264
                      : NSTATC            1 ITERMX           5
 Propagation flags    : ITFRE             1 IREFR            1
 Source term flags    : IBOT              0 ISURF            1
                      : IWCAP             7 IWIND            5
                      : ITRIAD            0 IQUAD            2
                      : IBRAG             0 IQCM             0
                      : IVEG              0 ITURBV           0
                      : IMUD              0 IICE             0
 Spatial step         : DX       0.3750E-01 DY      0.3750E-01
 Spectral bin         : df/f     0.9930E-01 DDIR    0.1000E+02
 Physical constants   : GRAV     0.9810E+01 RHO     0.1025E+04
 Wind input           : WSPEED   0.0000E+00 DIR     0.0000E+00
                      : ICEWIND  0.00
 Tail parameters      : E(f)     0.4000E+01 E(k)    0.2500E+01
                      : A(f)     0.5000E+01 A(k)    0.3000E+01
 Accuracy parameters  : DREL     0.2000E-01 NPNTS   0.9950E+02
                      : DHOVAL   0.2000E-01 DTOVAL  0.2000E-01
                      : GRWMX    0.1000E+00
 Drying/flooding      : LEVEL    0.0000E+00 DEPMIN  0.5000E-01
 The nautical  convention for wind and wave directions is used
 Scheme for geographic propagation is BSBT  
 Scheme geogr. space  : PROPSC            1 ICMAX            5
 Scheme spectral space: CSS      0.5000E+00 CDD     0.5000E+00
 Current is off
 Quadruplets          : IQUAD             2
                      : LAMBDA   0.2500E+00 CNL4    0.3000E+08
                      : CSH1     0.5500E+01 CSH2    0.8330E+00
                      : CSH3    -0.1250E+01
 Maximum Ursell nr for Snl4 :    0.1000E+02
 Triads is off
 Bragg scattering is off
 QC scattering is off
 Surfbeat (IEM) is off
 Bottom friction is off
 Vegetation is off
 Turbulence is off
 Fluid mud is off
 Dissipation by sea ice is off
 W-cap Alves-Banner   : CDS2     0.2360E-04 BR      0.1750E-02
 Wind drag is Wu
 Yan/Westhuysen wind input
 Battjes&Janssen (`78): ALPHA    0.1000E+01 GAMMA   0.7300E+00
 Set-up is off
 Diffraction is off
 Janssen (`89,`90)    : ALPHA    0.1000E-01 KAPPA   0.4100E+00
 Janssen (`89,`90)    : RHOA     0.1280E+01 RHOW    0.1025E+04

 1st and 2nd gen. wind: CF10     0.1880E+03 CF20    0.5900E+00
                      : CF30     0.1200E+00 CF40    0.2500E+03
                      : CF50     0.2300E-02 CF60   -0.2230E+00
                      : CF70     0.0000E+00 CF80   -0.5600E+00
                      : RHOAW    0.1249E-02 EDMLPM  0.3600E-02
                      : CDRAG    0.1230E-02 UMIN    0.1000E+01
                      : LIM_PM   0.1300E+00

 accuracy OK in   4.64 % of wet grid points ( 99.50 % required)

 accuracy OK in  37.42 % of wet grid points ( 99.50 % required)

 accuracy OK in  79.81 % of wet grid points ( 99.50 % required)

 accuracy OK in  99.66 % of wet grid points ( 99.50 % required)

  ** WARNING : Differences in wave height at the boundary
 Relative difference between input and computation >=   0.10
                         Hs[m]      Hs[m]      Hs[-]
     ix    iy  index   (input) (computed) (relative)
  --------------------------------------------------
     1     1      2       1.58       1.18       0.26

 Time of computation ->  20230101.003000      in sec:       1800.
 accuracy OK in   4.85 % of wet grid points ( 99.50 % required)

 accuracy OK in  87.69 % of wet grid points ( 99.50 % required)

 accuracy OK in  99.87 % of wet grid points ( 99.50 % required)

  ** WARNING : Differences in wave height at the boundary
 Relative difference between input and computation >=   0.10
                         Hs[m]      Hs[m]      Hs[-]
     ix    iy  index   (input) (computed) (relative)
  --------------------------------------------------
     1     1      2       1.59       1.17       0.26

 Time of computation ->  20230101.004500      in sec:       2700.
 accuracy OK in   4.78 % of wet grid points ( 99.50 % required)

 accuracy OK in  98.12 % of wet grid points ( 99.50 % required)

 accuracy OK in  99.80 % of wet grid points ( 99.50 % required)

  ** WARNING : Differences in wave height at the boundary
 Relative difference between input and computation >=   0.10
                         Hs[m]      Hs[m]      Hs[-]
     ix    iy  index   (input) (computed) (relative)
  --------------------------------------------------
     1     1      2       1.59       1.17       0.26
     2     1     66       1.59       1.40       0.12
     3     1    130       1.59       1.42       0.11
     4     1    194       1.59       1.41       0.11
     5     1    258       1.59       1.40       0.12
     6     1    322       1.59       1.40       0.12
     7     1    386       1.59       1.40       0.12
     8     1    450       1.59       1.40       0.12
     9     1    514       1.59       1.41       0.11
    10     1    578       1.59       1.41       0.11
    11     1    642       1.59       1.42       0.11
    12     1    706       1.59       1.42       0.11
    13     1    770       1.59       1.42       0.11
    14     1    834       1.59       1.42       0.11
    15     1    898       1.59       1.42       0.10
    16     1    962       1.59       1.42       0.10
    17     1   1026       1.59       1.42       0.10
    18     1   1090       1.59       1.42       0.10
    19     1   1154       1.59       1.42       0.10
    20     1   1218       1.59       1.42       0.10
    21     1   1282       1.59       1.42       0.10
    22     1   1346       1.59       1.42       0.10
    23     1   1410       1.59       1.42       0.10
    24     1   1474       1.59       1.42       0.10
    25     1   1538       1.59       1.42       0.10
    26     1   1602       1.59       1.42       0.11
    27     1   1666       1.59       1.42       0.11
    28     1   1730       1.59       1.42       0.11
    29     1   1794       1.59       1.42       0.11
    30     1   1858       1.59       1.42       0.11
    31     1   1922       1.59       1.42       0.11
    32     1   1986       1.59       1.42       0.11
    33     1   2050       1.59       1.42       0.11
    34     1   2114       1.59       1.42       0.11
    35     1   2178       1.59       1.42       0.10
    36     1   2242       1.59       1.42       0.10
    37     1   2306       1.59       1.42       0.10
    38     1   2370       1.59       1.42       0.10
    39     1   2434       1.59       1.42       0.10
    40     1   2498       1.59       1.43       0.10
    41     1   2562       1.59       1.43       0.10

 Time of computation ->  20230101.010000      in sec:       3600.
 accuracy OK in   4.71 % of wet grid points ( 99.50 % required)

 accuracy OK in  99.26 % of wet grid points ( 99.50 % required)

 accuracy OK in  99.93 % of wet grid points ( 99.50 % required)

  ** WARNING : Differences in wave height at the boundary
 Relative difference between input and computation >=   0.10
                         Hs[m]      Hs[m]      Hs[-]
     ix    iy  index   (input) (computed) (relative)
  --------------------------------------------------
     1     1      2       1.59       1.17       0.26
     2     1     66       1.59       1.38       0.13
     3     1    130       1.59       1.40       0.12
     4     1    194       1.59       1.38       0.13
     5     1    258       1.59       1.38       0.13
     6     1    322       1.59       1.38       0.13
     7     1    386       1.59       1.38       0.13
     8     1    450       1.59       1.38       0.13
     9     1    514       1.59       1.38       0.13
    10     1    578       1.59       1.39       0.13
    11     1    642       1.59       1.39       0.12
    12     1    706       1.59       1.39       0.12
    13     1    770       1.59       1.40       0.12
    14     1    834       1.59       1.40       0.12
    15     1    898       1.59       1.40       0.12
    16     1    962       1.59       1.40       0.12
    17     1   1026       1.59       1.40       0.12
    18     1   1090       1.59       1.40       0.12
    19     1   1154       1.59       1.40       0.12
    20     1   1218       1.59       1.40       0.12
    21     1   1282       1.59       1.40       0.12
    22     1   1346       1.59       1.40       0.12
    23     1   1410       1.59       1.40       0.12
    24     1   1474       1.59       1.40       0.12
    25     1   1538       1.59       1.40       0.12
    26     1   1602       1.59       1.40       0.12
    27     1   1666       1.59       1.40       0.12
    28     1   1730       1.59       1.40       0.12
    29     1   1794       1.59       1.40       0.12
    30     1   1858       1.59       1.40       0.12
    31     1   1922       1.59       1.40       0.12
    32     1   1986       1.59       1.40       0.12
    33     1   2050       1.59       1.40       0.12
    34     1   2114       1.59       1.40       0.12
    35     1   2178       1.59       1.40       0.12
    36     1   2242       1.59       1.40       0.12
    37     1   2306       1.59       1.40       0.12
    38     1   2370       1.59       1.40       0.12
    39     1   2434       1.59       1.40       0.12
    40     1   2498       1.59       1.41       0.12
    41     1   2562       1.59       1.41       0.11
    42     1   2626       1.59       1.42       0.11
    43     1   2690       1.59       1.42       0.10

 Time of computation ->  20230101.011500      in sec:       4500.
 accuracy OK in   9.15 % of wet grid points ( 99.50 % required)

 accuracy OK in  99.53 % of wet grid points ( 99.50 % required)

  ** WARNING : Differences in wave height at the boundary
 Relative difference between input and computation >=   0.10
                         Hs[m]      Hs[m]      Hs[-]
     ix    iy  index   (input) (computed) (relative)
  --------------------------------------------------
     1     1      2       1.59       1.17       0.27
     2     1     66       1.59       1.38       0.14
     3     1    130       1.59       1.40       0.12
     4     1    194       1.59       1.37       0.14
     5     1    258       1.59       1.36       0.15
     6     1    322       1.59       1.36       0.15
     7     1    386       1.59       1.36       0.15
     8     1    450       1.59       1.36       0.15
     9     1    514       1.59       1.37       0.14
    10     1    578       1.59       1.37       0.14
    11     1    642       1.59       1.37       0.14
    12     1    706       1.59       1.37       0.14
    13     1    770       1.59       1.38       0.14
    14     1    834       1.59       1.38       0.14
    15     1    898       1.59       1.38       0.13
    16     1    962       1.59       1.38       0.13
    17     1   1026       1.59       1.38       0.13
    18     1   1090       1.59       1.38       0.13
    19     1   1154       1.59       1.38       0.13
    20     1   1218       1.59       1.38       0.13
    21     1   1282       1.59       1.38       0.13
    22     1   1346       1.59       1.38       0.13
    23     1   1410       1.59       1.38       0.13
    24     1   1474       1.59       1.38       0.13
    25     1   1538       1.59       1.38       0.13
    26     1   1602       1.59       1.38       0.13
    27     1   1666       1.59       1.38       0.13
    28     1   1730       1.59       1.38       0.13
    29     1   1794       1.59       1.38       0.13
    30     1   1858       1.59       1.38       0.13
    31     1   1922       1.59       1.38       0.13
    32     1   1986       1.59       1.38       0.13
    33     1   2050       1.59       1.38       0.13
    34     1   2114       1.59       1.38       0.13
    35     1   2178       1.59       1.38       0.13
    36     1   2242       1.59       1.38       0.13
    37     1   2306       1.59       1.38       0.13
    38     1   2370       1.59       1.39       0.13
    39     1   2434       1.59       1.39       0.13
    40     1   2498       1.59       1.40       0.12
    41     1   2562       1.59       1.41       0.12
    42     1   2626       1.59       1.41       0.11
    43     1   2690       1.59       1.43       0.10

 Time of computation ->  20230101.013000      in sec:       5400.
 accuracy OK in  10.57 % of wet grid points ( 99.50 % required)

 accuracy OK in  99.60 % of wet grid points ( 99.50 % required)

  ** WARNING : Differences in wave height at the boundary
 Relative difference between input and computation >=   0.10
                         Hs[m]      Hs[m]      Hs[-]
     ix    iy  index   (input) (computed) (relative)
  --------------------------------------------------
     1     1      2       1.59       1.17       0.27
     2     1     66       1.59       1.37       0.14
     3     1    130       1.59       1.40       0.12
     4     1    194       1.59       1.36       0.15
     5     1    258       1.59       1.35       0.15
     6     1    322       1.59       1.35       0.16
     7     1    386       1.59       1.35       0.15
     8     1    450       1.59       1.35       0.15
     9     1    514       1.59       1.35       0.15
    10     1    578       1.59       1.36       0.15
    11     1    642       1.59       1.36       0.15
    12     1    706       1.59       1.36       0.15
    13     1    770       1.59       1.36       0.15
    14     1    834       1.59       1.36       0.14
    15     1    898       1.59       1.36       0.14
    16     1    962       1.59       1.36       0.14
    17     1   1026       1.59       1.36       0.14
    18     1   1090       1.59       1.36       0.14
    19     1   1154       1.59       1.36       0.14
    20     1   1218       1.59       1.36       0.14
    21     1   1282       1.59       1.36       0.14
    22     1   1346       1.59       1.36       0.14
    23     1   1410       1.59       1.36       0.14
    24     1   1474       1.59       1.36       0.14
    25     1   1538       1.59       1.36       0.14
    26     1   1602       1.59       1.36       0.14
    27     1   1666       1.59       1.36       0.14
    28     1   1730       1.59       1.36       0.14
    29     1   1794       1.59       1.36       0.14
    30     1   1858       1.59       1.36       0.14
    31     1   1922       1.59       1.37       0.14
    32     1   1986       1.59       1.37       0.14
    33     1   2050       1.59       1.37       0.14
    34     1   2114       1.59       1.37       0.14
    35     1   2178       1.59       1.37       0.14
    36     1   2242       1.59       1.38       0.14
    37     1   2306       1.59       1.38       0.13
    38     1   2370       1.59       1.39       0.13
    39     1   2434       1.59       1.39       0.13
    40     1   2498       1.59       1.40       0.12
    41     1   2562       1.59       1.41       0.11
    42     1   2626       1.59       1.42       0.11

 Time of computation ->  20230101.014500      in sec:       6300.
 accuracy OK in  15.95 % of wet grid points ( 99.50 % required)

 accuracy OK in  99.60 % of wet grid points ( 99.50 % required)

  ** WARNING : Differences in wave height at the boundary
 Relative difference between input and computation >=   0.10
                         Hs[m]      Hs[m]      Hs[-]
     ix    iy  index   (input) (computed) (relative)
  --------------------------------------------------
     1     1      2       1.59       1.17       0.27
     2     1     66       1.59       1.37       0.14
     3     1    130       1.59       1.39       0.13
     4     1    194       1.59       1.35       0.15
     5     1    258       1.59       1.34       0.16
     6     1    322       1.59       1.34       0.16
     7     1    386       1.59       1.34       0.16
     8     1    450       1.59       1.34       0.16
     9     1    514       1.59       1.34       0.16
    10     1    578       1.59       1.35       0.16
    11     1    642       1.59       1.35       0.15
    12     1    706       1.59       1.35       0.15
    13     1    770       1.59       1.35       0.15
    14     1    834       1.59       1.35       0.15
    15     1    898       1.59       1.35       0.15
    16     1    962       1.59       1.35       0.15
    17     1   1026       1.59       1.35       0.15
    18     1   1090       1.59       1.35       0.15
    19     1   1154       1.59       1.35       0.15
    20     1   1218       1.59       1.35       0.15
    21     1   1282       1.59       1.35       0.15
    22     1   1346       1.59       1.35       0.15
    23     1   1410       1.59       1.35       0.15
    24     1   1474       1.59       1.35       0.15
    25     1   1538       1.59       1.35       0.15
    26     1   1602       1.59       1.35       0.15
    27     1   1666       1.59       1.35       0.15
    28     1   1730       1.59       1.36       0.15
    29     1   1794       1.59       1.36       0.15
    30     1   1858       1.59       1.36       0.15
    31     1   1922       1.59       1.36       0.15
    32     1   1986       1.59       1.36       0.15
    33     1   2050       1.59       1.36       0.15
    34     1   2114       1.59       1.37       0.14
    35     1   2178       1.59       1.37       0.14
    36     1   2242       1.59       1.38       0.14
    37     1   2306       1.59       1.38       0.13
    38     1   2370       1.59       1.39       0.13
    39     1   2434       1.59       1.40       0.12
    40     1   2498       1.59       1.41       0.11
    41     1   2562       1.59       1.43       0.11

 Time of computation ->  20230101.020000      in sec:       7200.
 accuracy OK in  20.93 % of wet grid points ( 99.50 % required)

 accuracy OK in  99.53 % of wet grid points ( 99.50 % required)

  ** WARNING : Differences in wave height at the boundary
 Relative difference between input and computation >=   0.10
                         Hs[m]      Hs[m]      Hs[-]
     ix    iy  index   (input) (computed) (relative)
  --------------------------------------------------
     1     1      2       1.60       1.16       0.27
     2     1     66       1.60       1.36       0.15
     3     1    130       1.60       1.39       0.13
     4     1    194       1.60       1.35       0.16
     5     1    258       1.60       1.33       0.17
     6     1    322       1.60       1.33       0.17
     7     1    386       1.60       1.33       0.17
     8     1    450       1.60       1.33       0.17
     9     1    514       1.60       1.34       0.16
    10     1    578       1.60       1.34       0.16
    11     1    642       1.60       1.34       0.16
    12     1    706       1.60       1.34       0.16
    13     1    770       1.60       1.34       0.16
    14     1    834       1.60       1.34       0.16
    15     1    898       1.60       1.35       0.16
    16     1    962       1.60       1.35       0.16
    17     1   1026       1.60       1.35       0.16
    18     1   1090       1.60       1.35       0.16
    19     1   1154       1.60       1.35       0.16
    20     1   1218       1.60       1.35       0.16
    21     1   1282       1.60       1.35       0.16
    22     1   1346       1.60       1.35       0.16
    23     1   1410       1.60       1.35       0.16
    24     1   1474       1.60       1.35       0.16
    25     1   1538       1.60       1.35       0.16
    26     1   1602       1.60       1.35       0.16
    27     1   1666       1.60       1.35       0.16
    28     1   1730       1.60       1.35       0.15
    29     1   1794       1.60       1.35       0.15
    30     1   1858       1.60       1.35       0.15
    31     1   1922       1.60       1.36       0.15
    32     1   1986       1.60       1.36       0.15
    33     1   2050       1.60       1.36       0.15
    34     1   2114       1.60       1.37       0.14
    35     1   2178       1.60       1.37       0.14
    36     1   2242       1.60       1.38       0.13
    37     1   2306       1.60       1.39       0.13
    38     1   2370       1.60       1.40       0.12
    39     1   2434       1.60       1.42       0.11
    40     1   2498       1.60       1.43       0.10

 Time of computation ->  20230101.021500      in sec:       8100.
 accuracy OK in  26.18 % of wet grid points ( 99.50 % required)

 accuracy OK in  99.53 % of wet grid points ( 99.50 % required)

  ** WARNING : Differences in wave height at the boundary
 Relative difference between input and computation >=   0.10
                         Hs[m]      Hs[m]      Hs[-]
     ix    iy  index   (input) (computed) (relative)
  --------------------------------------------------
     1     1      2       1.60       1.16       0.27
     2     1     66       1.60       1.36       0.15
     3     1    130       1.60       1.39       0.13
     4     1    194       1.60       1.34       0.16
     5     1    258       1.60       1.33       0.17
     6     1    322       1.60       1.32       0.17
     7     1    386       1.60       1.32       0.17
     8     1    450       1.60       1.33       0.17
     9     1    514       1.60       1.33       0.17
    10     1    578       1.60       1.33       0.17
    11     1    642       1.60       1.33       0.16
    12     1    706       1.60       1.34       0.16
    13     1    770       1.60       1.34       0.16
    14     1    834       1.60       1.34       0.16
    15     1    898       1.60       1.34       0.16
    16     1    962       1.60       1.34       0.16
    17     1   1026       1.60       1.34       0.16
    18     1   1090       1.60       1.34       0.16
    19     1   1154       1.60       1.34       0.16
    20     1   1218       1.60       1.34       0.16
    21     1   1282       1.60       1.34       0.16
    22     1   1346       1.60       1.34       0.16
    23     1   1410       1.60       1.34       0.16
    24     1   1474       1.60       1.34       0.16
    25     1   1538       1.60       1.34       0.16
    26     1   1602       1.60       1.34       0.16
    27     1   1666       1.60       1.35       0.16
    28     1   1730       1.60       1.35       0.16
    29     1   1794       1.60       1.35       0.15
    30     1   1858       1.60       1.35       0.15
    31     1   1922       1.60       1.36       0.15
    32     1   1986       1.60       1.36       0.15
    33     1   2050       1.60       1.37       0.14
    34     1   2114       1.60       1.38       0.14
    35     1   2178       1.60       1.38       0.13
    36     1   2242       1.60       1.39       0.13
    37     1   2306       1.60       1.41       0.12
    38     1   2370       1.60       1.42       0.11
    39     1   2434       1.60       1.44       0.10

 Time of computation ->  20230101.023000      in sec:       9000.
 accuracy OK in  31.02 % of wet grid points ( 99.50 % required)

 accuracy OK in  99.53 % of wet grid points ( 99.50 % required)

  ** WARNING : Differences in wave height at the boundary
 Relative difference between input and computation >=   0.10
                         Hs[m]      Hs[m]      Hs[-]
     ix    iy  index   (input) (computed) (relative)
  --------------------------------------------------
     1     1      2       1.60       1.16       0.27
     2     1     66       1.60       1.36       0.15
     3     1    130       1.60       1.39       0.13
     4     1    194       1.60       1.34       0.16
     5     1    258       1.60       1.32       0.17
     6     1    322       1.60       1.32       0.18
     7     1    386       1.60       1.32       0.17
     8     1    450       1.60       1.32       0.17
     9     1    514       1.60       1.32       0.17
    10     1    578       1.60       1.33       0.17
    11     1    642       1.60       1.33       0.17
    12     1    706       1.60       1.33       0.17
    13     1    770       1.60       1.33       0.17
    14     1    834       1.60       1.33       0.17
    15     1    898       1.60       1.34       0.17
    16     1    962       1.60       1.34       0.16
    17     1   1026       1.60       1.34       0.16
    18     1   1090       1.60       1.34       0.16
    19     1   1154       1.60       1.34       0.16
    20     1   1218       1.60       1.34       0.16
    21     1   1282       1.60       1.34       0.16
    22     1   1346       1.60       1.34       0.16
    23     1   1410       1.60       1.34       0.16
    24     1   1474       1.60       1.34       0.16
    25     1   1538       1.60       1.34       0.16
    26     1   1602       1.60       1.34       0.16
    27     1   1666       1.60       1.35       0.16
    28     1   1730       1.60       1.35       0.16
    29     1   1794       1.60       1.35       0.15
    30     1   1858       1.60       1.36       0.15
    31     1   1922       1.60       1.36       0.15
    32     1   1986       1.60       1.37       0.14
    33     1   2050       1.60       1.38       0.14
    34     1   2114       1.60       1.39       0.13
    35     1   2178       1.60       1.40       0.13
    36     1   2242       1.60       1.41       0.12
    37     1   2306       1.60       1.42       0.11

 Time of computation ->  20230101.024500      in sec:       9900.
 accuracy OK in  35.94 % of wet grid points ( 99.50 % required)

 accuracy OK in  99.39 % of wet grid points ( 99.50 % required)

 accuracy OK in  99.80 % of wet grid points ( 99.50 % required)

  ** WARNING : Differences in wave height at the boundary
 Relative difference between input and computation >=   0.10
                         Hs[m]      Hs[m]      Hs[-]
     ix    iy  index   (input) (computed) (relative)
  --------------------------------------------------
     1     1      2       1.60       1.16       0.28
     2     1     66       1.60       1.34       0.16
     3     1    130       1.60       1.35       0.16
     4     1    194       1.60       1.32       0.17
     5     1    258       1.60       1.32       0.18
     6     1    322       1.60       1.32       0.18
     7     1    386       1.60       1.32       0.18
     8     1    450       1.60       1.32       0.18
     9     1    514       1.60       1.32       0.17
    10     1    578       1.60       1.33       0.17
    11     1    642       1.60       1.33       0.17
    12     1    706       1.60       1.33       0.17
    13     1    770       1.60       1.33       0.17
    14     1    834       1.60       1.33       0.17
    15     1    898       1.60       1.33       0.17
    16     1    962       1.60       1.34       0.17
    17     1   1026       1.60       1.34       0.17
    18     1   1090       1.60       1.34       0.16
    19     1   1154       1.60       1.34       0.16
    20     1   1218       1.60       1.34       0.16
    21     1   1282       1.60       1.34       0.16
    22     1   1346       1.60       1.34       0.16
    23     1   1410       1.60       1.34       0.16
    24     1   1474       1.60       1.34       0.16
    25     1   1538       1.60       1.35       0.16
    26     1   1602       1.60       1.35       0.16
    27     1   1666       1.60       1.35       0.16
    28     1   1730       1.60       1.36       0.15
    29     1   1794       1.60       1.36       0.15
    30     1   1858       1.60       1.37       0.15
    31     1   1922       1.60       1.38       0.14
    32     1   1986       1.60       1.38       0.14
    33     1   2050       1.60       1.39       0.13
    34     1   2114       1.60       1.41       0.12
    35     1   2178       1.60       1.42       0.11
    36     1   2242       1.60       1.43       0.11

 Time of computation ->  20230101.030000      in sec:      10800.
 accuracy OK in  40.24 % of wet grid points ( 99.50 % required)

 accuracy OK in  99.39 % of wet grid points ( 99.50 % required)

 accuracy OK in  99.87 % of wet grid points ( 99.50 % required)

  ** WARNING : Differences in wave height at the boundary
 Relative difference between input and computation >=   0.10
                         Hs[m]      Hs[m]      Hs[-]
     ix    iy  index   (input) (computed) (relative)
  --------------------------------------------------
     1     1      2       1.60       1.16       0.28
     2     1     66       1.60       1.33       0.17
     3     1    130       1.60       1.35       0.16
     4     1    194       1.60       1.31       0.18
     5     1    258       1.60       1.31       0.18
     6     1    322       1.60       1.31       0.18
     7     1    386       1.60       1.31       0.18
     8     1    450       1.60       1.32       0.18
     9     1    514       1.60       1.32       0.18
    10     1    578       1.60       1.32       0.17
    11     1    642       1.60       1.33       0.17
    12     1    706       1.60       1.33       0.17
    13     1    770       1.60       1.33       0.17
    14     1    834       1.60       1.33       0.17
    15     1    898       1.60       1.33       0.17
    16     1    962       1.60       1.33       0.17
    17     1   1026       1.60       1.34       0.17
    18     1   1090       1.60       1.34       0.17
    19     1   1154       1.60       1.34       0.17
    20     1   1218       1.60       1.34       0.16
    21     1   1282       1.60       1.34       0.16
    22     1   1346       1.60       1.34       0.16
    23     1   1410       1.60       1.35       0.16
    24     1   1474       1.60       1.35       0.16
    25     1   1538       1.60       1.35       0.16
    26     1   1602       1.60       1.35       0.16
    27     1   1666       1.60       1.36       0.15
    28     1   1730       1.60       1.36       0.15
    29     1   1794       1.60       1.37       0.14
    30     1   1858       1.60       1.38       0.14
    31     1   1922       1.60       1.39       0.13
    32     1   1986       1.60       1.40       0.13
    33     1   2050       1.60       1.41       0.12
    34     1   2114       1.60       1.42       0.11
    35     1   2178       1.60       1.44       0.10

 Time of computation ->  20230101.031500      in sec:      11700.
 accuracy OK in  44.82 % of wet grid points ( 99.50 % required)

 accuracy OK in  99.46 % of wet grid points ( 99.50 % required)

 accuracy OK in  99.87 % of wet grid points ( 99.50 % required)

  ** WARNING : Differences in wave height at the boundary
 Relative difference between input and computation >=   0.10
                         Hs[m]      Hs[m]      Hs[-]
     ix    iy  index   (input) (computed) (relative)
  --------------------------------------------------
     1     1      2       1.60       1.16       0.28
     2     1     66       1.60       1.33       0.17
     3     1    130       1.60       1.34       0.16
     4     1    194       1.60       1.31       0.18
     5     1    258       1.60       1.31       0.18
     6     1    322       1.60       1.31       0.18
     7     1    386       1.60       1.31       0.18
     8     1    450       1.60       1.31       0.18
     9     1    514       1.60       1.32       0.18
    10     1    578       1.60       1.32       0.18
    11     1    642       1.60       1.32       0.18
    12     1    706       1.60       1.33       0.17
    13     1    770       1.60       1.33       0.17
    14     1    834       1.60       1.33       0.17
    15     1    898       1.60       1.33       0.17
    16     1    962       1.60       1.33       0.17
    17     1   1026       1.60       1.34       0.17
    18     1   1090       1.60       1.34       0.17
    19     1   1154       1.60       1.34       0.17
    20     1   1218       1.60       1.34       0.16
    21     1   1282       1.60       1.34       0.16
    22     1   1346       1.60       1.35       0.16
    23     1   1410       1.60       1.35       0.16
    24     1   1474       1.60       1.35       0.16
    25     1   1538       1.60       1.36       0.15
    26     1   1602       1.60       1.36       0.15
    27     1   1666       1.60       1.37       0.15
    28     1   1730       1.60       1.38       0.14
    29     1   1794       1.60       1.38       0.14
    30     1   1858       1.60       1.39       0.13
    31     1   1922       1.60       1.41       0.12
    32     1   1986       1.60       1.42       0.12
    33     1   2050       1.60       1.43       0.11

 Time of computation ->  20230101.033000      in sec:      12600.
 accuracy OK in  49.19 % of wet grid points ( 99.50 % required)

 accuracy OK in  99.46 % of wet grid points ( 99.50 % required)

 accuracy OK in  99.87 % of wet grid points ( 99.50 % required)

  ** WARNING : Differences in wave height at the boundary
 Relative difference between input and computation >=   0.10
                         Hs[m]      Hs[m]      Hs[-]
     ix    iy  index   (input) (computed) (relative)
  --------------------------------------------------
     1     1      2       1.61       1.16       0.28
     2     1     66       1.61       1.33       0.17
     3     1    130       1.61       1.34       0.16
     4     1    194       1.61       1.31       0.19
     5     1    258       1.61       1.31       0.19
     6     1    322       1.61       1.31       0.19
     7     1    386       1.61       1.31       0.18
     8     1    450       1.61       1.31       0.18
     9     1    514       1.61       1.32       0.18
    10     1    578       1.61       1.32       0.18
    11     1    642       1.61       1.32       0.18
    12     1    706       1.61       1.32       0.18
    13     1    770       1.61       1.33       0.17
    14     1    834       1.61       1.33       0.17
    15     1    898       1.61       1.33       0.17
    16     1    962       1.61       1.33       0.17
    17     1   1026       1.61       1.34       0.17
    18     1   1090       1.61       1.34       0.17
    19     1   1154       1.61       1.34       0.16
    20     1   1218       1.61       1.35       0.16
    21     1   1282       1.61       1.35       0.16
    22     1   1346       1.61       1.35       0.16
    23     1   1410       1.61       1.36       0.16
    24     1   1474       1.61       1.36       0.15
    25     1   1538       1.61       1.37       0.15
    26     1   1602       1.61       1.37       0.14
    27     1   1666       1.61       1.38       0.14
    28     1   1730       1.61       1.39       0.13
    29     1   1794       1.61       1.40       0.13
    30     1   1858       1.61       1.41       0.12
    31     1   1922       1.61       1.42       0.11
    32     1   1986       1.61       1.44       0.10

 Time of computation ->  20230101.034500      in sec:      13500.
 accuracy OK in  53.50 % of wet grid points ( 99.50 % required)

 accuracy OK in  99.53 % of wet grid points ( 99.50 % required)

  ** WARNING : Differences in wave height at the boundary
 Relative difference between input and computation >=   0.10
                         Hs[m]      Hs[m]      Hs[-]
     ix    iy  index   (input) (computed) (relative)
  --------------------------------------------------
     1     1      2       1.61       1.15       0.28
     2     1     66       1.61       1.35       0.16
     3     1    130       1.61       1.38       0.14
     4     1    194       1.61       1.33       0.17
     5     1    258       1.61       1.32       0.18
     6     1    322       1.61       1.31       0.19
     7     1    386       1.61       1.31       0.19
     8     1    450       1.61       1.31       0.19
     9     1    514       1.61       1.31       0.18
    10     1    578       1.61       1.32       0.18
    11     1    642       1.61       1.32       0.18
    12     1    706       1.61       1.32       0.18
    13     1    770       1.61       1.32       0.18
    14     1    834       1.61       1.33       0.17
    15     1    898       1.61       1.33       0.17
    16     1    962       1.61       1.33       0.17
    17     1   1026       1.61       1.34       0.17
    18     1   1090       1.61       1.34       0.17
    19     1   1154       1.61       1.34       0.16
    20     1   1218       1.61       1.35       0.16
    21     1   1282       1.61       1.35       0.16
    22     1   1346       1.61       1.36       0.16
    23     1   1410       1.61       1.36       0.15
    24     1   1474       1.61       1.37       0.15
    25     1   1538       1.61       1.37       0.14
    26     1   1602       1.61       1.38       0.14
    27     1   1666       1.61       1.39       0.13
    28     1   1730       1.61       1.40       0.13
    29     1   1794       1.61       1.41       0.12
    30     1   1858       1.61       1.43       0.11
    31     1   1922       1.61       1.44       0.10

 Time of computation ->  20230101.040000      in sec:      14400.
 accuracy OK in  57.54 % of wet grid points ( 99.50 % required)

 accuracy OK in  99.53 % of wet grid points ( 99.50 % required)

  ** WARNING : Differences in wave height at the boundary
 Relative difference between input and computation >=   0.10
                         Hs[m]      Hs[m]      Hs[-]
     ix    iy  index   (input) (computed) (relative)
  --------------------------------------------------
     1     1      2       1.61       1.15       0.28
     2     1     66       1.61       1.35       0.16
     3     1    130       1.61       1.38       0.14
     4     1    194       1.61       1.33       0.17
     5     1    258       1.61       1.31       0.18
     6     1    322       1.61       1.31       0.19
     7     1    386       1.61       1.31       0.19
     8     1    450       1.61       1.31       0.19
     9     1    514       1.61       1.31       0.18
    10     1    578       1.61       1.32       0.18
    11     1    642       1.61       1.32       0.18
    12     1    706       1.61       1.32       0.18
    13     1    770       1.61       1.33       0.18
    14     1    834       1.61       1.33       0.17
    15     1    898       1.61       1.33       0.17
    16     1    962       1.61       1.34       0.17
    17     1   1026       1.61       1.34       0.17
    18     1   1090       1.61       1.34       0.16
    19     1   1154       1.61       1.35       0.16
    20     1   1218       1.61       1.35       0.16
    21     1   1282       1.61       1.36       0.16
    22     1   1346       1.61       1.37       0.15
    23     1   1410       1.61       1.37       0.15
    24     1   1474       1.61       1.38       0.14
    25     1   1538       1.61       1.39       0.14
    26     1   1602       1.61       1.40       0.13
    27     1   1666       1.61       1.41       0.12
    28     1   1730       1.61       1.42       0.12
    29     1   1794       1.61       1.43       0.11
    30     1   1858       1.61       1.45       0.10

 Time of computation ->  20230101.041500      in sec:      15300.
 accuracy OK in  61.91 % of wet grid points ( 99.50 % required)

 accuracy OK in  99.53 % of wet grid points ( 99.50 % required)

  ** WARNING : Differences in wave height at the boundary
 Relative difference between input and computation >=   0.10
                         Hs[m]      Hs[m]      Hs[-]
     ix    iy  index   (input) (computed) (relative)
  --------------------------------------------------
     1     1      2       1.61       1.15       0.29
     2     1     66       1.61       1.35       0.16
     3     1    130       1.61       1.39       0.14
     4     1    194       1.61       1.33       0.17
     5     1    258       1.61       1.31       0.18
     6     1    322       1.61       1.31       0.19
     7     1    386       1.61       1.31       0.19
     8     1    450       1.61       1.31       0.19
     9     1    514       1.61       1.31       0.19
    10     1    578       1.61       1.32       0.18
    11     1    642       1.61       1.32       0.18
    12     1    706       1.61       1.32       0.18
    13     1    770       1.61       1.33       0.18
    14     1    834       1.61       1.33       0.17
    15     1    898       1.61       1.34       0.17
    16     1    962       1.61       1.34       0.17
    17     1   1026       1.61       1.35       0.16
    18     1   1090       1.61       1.35       0.16
    19     1   1154       1.61       1.36       0.16
    20     1   1218       1.61       1.36       0.15
    21     1   1282       1.61       1.37       0.15
    22     1   1346       1.61       1.38       0.15
    23     1   1410       1.61       1.38       0.14
    24     1   1474       1.61       1.39       0.13
    25     1   1538       1.61       1.40       0.13
    26     1   1602       1.61       1.41       0.12
    27     1   1666       1.61       1.43       0.11
    28     1   1730       1.61       1.44       0.11

 Time of computation ->  20230101.043000      in sec:      16200.
 accuracy OK in  66.02 % of wet grid points ( 99.50 % required)

 accuracy OK in  99.53 % of wet grid points ( 99.50 % required)

  ** WARNING : Differences in wave height at the boundary
 Relative difference between input and computation >=   0.10
                         Hs[m]      Hs[m]      Hs[-]
     ix    iy  index   (input) (computed) (relative)
  --------------------------------------------------
     1     1      2       1.61       1.15       0.29
     2     1     66       1.61       1.35       0.16
     3     1    130       1.61       1.39       0.14
     4     1    194       1.61       1.34       0.17
     5     1    258       1.61       1.32       0.18
     6     1    322       1.61       1.31       0.19
     7     1    386       1.61       1.31       0.19
     8     1    450       1.61       1.31       0.19
     9     1    514       1.61       1.31       0.19
    10     1    578       1.61       1.32       0.18
    11     1    642       1.61       1.32       0.18
    12     1    706       1.61       1.33       0.18
    13     1    770       1.61       1.33       0.17
    14     1    834       1.61       1.34       0.17
    15     1    898       1.61       1.34       0.17
    16     1    962       1.61       1.35       0.16
    17     1   1026       1.61       1.35       0.16
    18     1   1090       1.61       1.36       0.16
    19     1   1154       1.61       1.37       0.15
    20     1   1218       1.61       1.37       0.15
    21     1   1282       1.61       1.38       0.14
    22     1   1346       1.61       1.39       0.14
    23     1   1410       1.61       1.40       0.13
    24     1   1474       1.61       1.41       0.13
    25     1   1538       1.61       1.42       0.12
    26     1   1602       1.61       1.43       0.11
    27     1   1666       1.61       1.44       0.10

 Time of computation ->  20230101.044500      in sec:      17100.
 accuracy OK in  70.52 % of wet grid points ( 99.50 % required)

 accuracy OK in  99.53 % of wet grid points ( 99.50 % required)

  ** WARNING : Differences in wave height at the boundary
 Relative difference between input and computation >=   0.10
                         Hs[m]      Hs[m]      Hs[-]
     ix    iy  index   (input) (computed) (relative)
  --------------------------------------------------
     1     1      2       1.61       1.15       0.29
     2     1     66       1.61       1.35       0.16
     3     1    130       1.61       1.39       0.14
     4     1    194       1.61       1.34       0.17
     5     1    258       1.61       1.32       0.18
     6     1    322       1.61       1.31       0.19
     7     1    386       1.61       1.31       0.19
     8     1    450       1.61       1.31       0.19
     9     1    514       1.61       1.31       0.19
    10     1    578       1.61       1.32       0.18
    11     1    642       1.61       1.32       0.18
    12     1    706       1.61       1.33       0.18
    13     1    770       1.61       1.34       0.17
    14     1    834       1.61       1.34       0.17
    15     1    898       1.61       1.35       0.16
    16     1    962       1.61       1.35       0.16
    17     1   1026       1.61       1.36       0.16
    18     1   1090       1.61       1.37       0.15
    19     1   1154       1.61       1.38       0.15
    20     1   1218       1.61       1.39       0.14
    21     1   1282       1.61       1.40       0.14
    22     1   1346       1.61       1.40       0.13
    23     1   1410       1.61       1.42       0.12
    24     1   1474       1.61       1.43       0.12
    25     1   1538       1.61       1.44       0.11
    26     1   1602       1.61       1.45       0.10

 Time of computation ->  20230101.050000      in sec:      18000.
 accuracy OK in  74.29 % of wet grid points ( 99.50 % required)

 accuracy OK in  99.53 % of wet grid points ( 99.50 % required)

  ** WARNING : Differences in wave height at the boundary
 Relative difference between input and computation >=   0.10
                         Hs[m]      Hs[m]      Hs[-]
     ix    iy  index   (input) (computed) (relative)
  --------------------------------------------------
     1     1      2       1.61       1.15       0.29
     2     1     66       1.61       1.36       0.16
     3     1    130       1.61       1.39       0.14
     4     1    194       1.61       1.34       0.17
     5     1    258       1.61       1.32       0.18
     6     1    322       1.61       1.31       0.19
     7     1    386       1.61       1.31       0.19
     8     1    450       1.61       1.31       0.19
     9     1    514       1.61       1.31       0.19
    10     1    578       1.61       1.32       0.18
    11     1    642       1.61       1.33       0.18
    12     1    706       1.61       1.33       0.17
    13     1    770       1.61       1.34       0.17
    14     1    834       1.61       1.35       0.17
    15     1    898       1.61       1.36       0.16
    16     1    962       1.61       1.36       0.16
    17     1   1026       1.61       1.37       0.15
    18     1   1090       1.61       1.38       0.14
    19     1   1154       1.61       1.39       0.14
    20     1   1218       1.61       1.40       0.13
    21     1   1282       1.61       1.41       0.13
    22     1   1346       1.61       1.42       0.12
    23     1   1410       1.61       1.43       0.11
    24     1   1474       1.61       1.44       0.11

 Time of computation ->  20230101.051500      in sec:      18900.
 accuracy OK in  78.60 % of wet grid points ( 99.50 % required)

 accuracy OK in  99.53 % of wet grid points ( 99.50 % required)

  ** WARNING : Differences in wave height at the boundary
 Relative difference between input and computation >=   0.10
                         Hs[m]      Hs[m]      Hs[-]
     ix    iy  index   (input) (computed) (relative)
  --------------------------------------------------
     1     1      2       1.62       1.15       0.29
     2     1     66       1.62       1.36       0.16
     3     1    130       1.62       1.39       0.14
     4     1    194       1.62       1.34       0.17
     5     1    258       1.62       1.32       0.18
     6     1    322       1.62       1.31       0.19
     7     1    386       1.62       1.31       0.19
     8     1    450       1.62       1.31       0.19
     9     1    514       1.62       1.32       0.19
    10     1    578       1.62       1.32       0.18
    11     1    642       1.62       1.33       0.18
    12     1    706       1.62       1.34       0.17
    13     1    770       1.62       1.35       0.17
    14     1    834       1.62       1.36       0.16
    15     1    898       1.62       1.36       0.16
    16     1    962       1.62       1.37       0.15
    17     1   1026       1.62       1.38       0.14
    18     1   1090       1.62       1.39       0.14
    19     1   1154       1.62       1.40       0.13
    20     1   1218       1.62       1.41       0.12
    21     1   1282       1.62       1.43       0.12
    22     1   1346       1.62       1.44       0.11
    23     1   1410       1.62       1.45       0.10

 Time of computation ->  20230101.053000      in sec:      19800.
 accuracy OK in  82.50 % of wet grid points ( 99.50 % required)

 accuracy OK in  99.53 % of wet grid points ( 99.50 % required)

  ** WARNING : Differences in wave height at the boundary
 Relative difference between input and computation >=   0.10
                         Hs[m]      Hs[m]      Hs[-]
     ix    iy  index   (input) (computed) (relative)
  --------------------------------------------------
     1     1      2       1.62       1.15       0.29
     2     1     66       1.62       1.36       0.16
     3     1    130       1.62       1.39       0.14
     4     1    194       1.62       1.34       0.17
     5     1    258       1.62       1.32       0.18
     6     1    322       1.62       1.31       0.19
     7     1    386       1.62       1.31       0.19
     8     1    450       1.62       1.31       0.19
     9     1    514       1.62       1.32       0.18
    10     1    578       1.62       1.33       0.18
    11     1    642       1.62       1.34       0.17
    12     1    706       1.62       1.35       0.17
    13     1    770       1.62       1.36       0.16
    14     1    834       1.62       1.37       0.16
    15     1    898       1.62       1.37       0.15
    16     1    962       1.62       1.39       0.14
    17     1   1026       1.62       1.40       0.14
    18     1   1090       1.62       1.41       0.13
    19     1   1154       1.62       1.42       0.12
    20     1   1218       1.62       1.43       0.12
    21     1   1282       1.62       1.44       0.11
    22     1   1346       1.62       1.45       0.10

 Time of computation ->  20230101.054500      in sec:      20700.
 accuracy OK in  86.54 % of wet grid points ( 99.50 % required)

 accuracy OK in  99.53 % of wet grid points ( 99.50 % required)

  ** WARNING : Differences in wave height at the boundary
 Relative difference between input and computation >=   0.10
                         Hs[m]      Hs[m]      Hs[-]
     ix    iy  index   (input) (computed) (relative)
  --------------------------------------------------
     1     1      2       1.62       1.14       0.29
     2     1     66       1.62       1.36       0.16
     3     1    130       1.62       1.39       0.14
     4     1    194       1.62       1.34       0.17
     5     1    258       1.62       1.32       0.18
     6     1    322       1.62       1.31       0.19
     7     1    386       1.62       1.31       0.19
     8     1    450       1.62       1.32       0.19
     9     1    514       1.62       1.32       0.18
    10     1    578       1.62       1.33       0.18
    11     1    642       1.62       1.34       0.17
    12     1    706       1.62       1.35       0.16
    13     1    770       1.62       1.36       0.16
    14     1    834       1.62       1.37       0.15
    15     1    898       1.62       1.39       0.14
    16     1    962       1.62       1.40       0.14
    17     1   1026       1.62       1.41       0.13
    18     1   1090       1.62       1.42       0.12
    19     1   1154       1.62       1.43       0.11
    20     1   1218       1.62       1.45       0.11

 Time of computation ->  20230101.060000      in sec:      21600.
 accuracy OK in  90.98 % of wet grid points ( 99.50 % required)

 accuracy OK in  99.53 % of wet grid points ( 99.50 % required)

  ** WARNING : Differences in wave height at the boundary
 Relative difference between input and computation >=   0.10
                         Hs[m]      Hs[m]      Hs[-]
     ix    iy  index   (input) (computed) (relative)
  --------------------------------------------------
     1     1      2       1.62       1.14       0.29
     2     1     66       1.62       1.36       0.16
     3     1    130       1.62       1.40       0.14
     4     1    194       1.62       1.34       0.17
     5     1    258       1.62       1.32       0.18
     6     1    322       1.62       1.31       0.19
     7     1    386       1.62       1.31       0.19
     8     1    450       1.62       1.32       0.19
     9     1    514       1.62       1.33       0.18
    10     1    578       1.62       1.34       0.17
    11     1    642       1.62       1.35       0.17
    12     1    706       1.62       1.36       0.16
    13     1    770       1.62       1.37       0.15
    14     1    834       1.62       1.39       0.14
    15     1    898       1.62       1.40       0.14
    16     1    962       1.62       1.41       0.13
    17     1   1026       1.62       1.42       0.12
    18     1   1090       1.62       1.44       0.11
    19     1   1154       1.62       1.45       0.11

 Time of computation ->  20230101.061500      in sec:      22500.
 Boundary data type TPAR processed, time:       43200.
 Boundary data type TPAR processed, time:       43200.
 accuracy OK in  95.09 % of wet grid points ( 99.50 % required)

 accuracy OK in  99.53 % of wet grid points ( 99.50 % required)

  ** WARNING : Differences in wave height at the boundary
 Relative difference between input and computation >=   0.10
                         Hs[m]      Hs[m]      Hs[-]
     ix    iy  index   (input) (computed) (relative)
  --------------------------------------------------
     1     1      2       1.62       1.14       0.30
     2     1     66       1.62       1.36       0.16
     3     1    130       1.62       1.40       0.14
     4     1    194       1.62       1.35       0.17
     5     1    258       1.62       1.33       0.18
     6     1    322       1.62       1.31       0.19
     7     1    386       1.62       1.32       0.19
     8     1    450       1.62       1.32       0.18
     9     1    514       1.62       1.33       0.18
    10     1    578       1.62       1.35       0.17
    11     1    642       1.62       1.36       0.16
    12     1    706       1.62       1.37       0.15
    13     1    770       1.62       1.39       0.15
    14     1    834       1.62       1.40       0.14
    15     1    898       1.62       1.41       0.13
    16     1    962       1.62       1.43       0.12
    17     1   1026       1.62       1.44       0.11
    18     1   1090       1.62       1.45       0.10

 Time of computation ->  20230101.063000      in sec:      23400.
 accuracy OK in  96.57 % of wet grid points ( 99.50 % required)

 accuracy OK in  99.53 % of wet grid points ( 99.50 % required)

  ** WARNING : Differences in wave height at the boundary
 Relative difference between input and computation >=   0.10
                         Hs[m]      Hs[m]      Hs[-]
     ix    iy  index   (input) (computed) (relative)
  --------------------------------------------------
     1     1      2       1.62       1.14       0.30
     2     1     66       1.62       1.36       0.16
     3     1    130       1.62       1.40       0.14
     4     1    194       1.62       1.35       0.17
     5     1    258       1.62       1.33       0.18
     6     1    322       1.62       1.32       0.19
     7     1    386       1.62       1.32       0.18
     8     1    450       1.62       1.33       0.18
     9     1    514       1.62       1.34       0.17
    10     1    578       1.62       1.35       0.17
    11     1    642       1.62       1.37       0.16
    12     1    706       1.62       1.38       0.15
    13     1    770       1.62       1.40       0.14
    14     1    834       1.62       1.41       0.13
    15     1    898       1.62       1.43       0.12
    16     1    962       1.62       1.44       0.11
    17     1   1026       1.62       1.46       0.10

 Time of computation ->  20230101.064500      in sec:      24300.
 accuracy OK in  96.90 % of wet grid points ( 99.50 % required)

 accuracy OK in  99.53 % of wet grid points ( 99.50 % required)

  ** WARNING : Differences in wave height at the boundary
 Relative difference between input and computation >=   0.10
                         Hs[m]      Hs[m]      Hs[-]
     ix    iy  index   (input) (computed) (relative)
  --------------------------------------------------
     1     1      2       1.63       1.14       0.30
     2     1     66       1.63       1.37       0.16
     3     1    130       1.63       1.40       0.14
     4     1    194       1.63       1.35       0.17
     5     1    258       1.63       1.33       0.18
     6     1    322       1.63       1.32       0.19
     7     1    386       1.63       1.33       0.18
     8     1    450       1.63       1.34       0.18
     9     1    514       1.63       1.35       0.17
    10     1    578       1.63       1.36       0.16
    11     1    642       1.63       1.38       0.15
    12     1    706       1.63       1.40       0.14
    13     1    770       1.63       1.41       0.13
    14     1    834       1.63       1.43       0.12
    15     1    898       1.63       1.44       0.11
    16     1    962       1.63       1.46       0.10

 Time of computation ->  20230101.070000      in sec:      25200.
 accuracy OK in  96.90 % of wet grid points ( 99.50 % required)

 accuracy OK in  99.33 % of wet grid points ( 99.50 % required)

 accuracy OK in  99.93 % of wet grid points ( 99.50 % required)

  ** WARNING : Differences in wave height at the boundary
 Relative difference between input and computation >=   0.10
                         Hs[m]      Hs[m]      Hs[-]
     ix    iy  index   (input) (computed) (relative)
  --------------------------------------------------
     1     1      2       1.63       1.14       0.30
     2     1     66       1.63       1.35       0.17
     3     1    130       1.63       1.37       0.16
     4     1    194       1.63       1.33       0.18
     5     1    258       1.63       1.33       0.18
     6     1    322       1.63       1.33       0.18
     7     1    386       1.63       1.33       0.18
     8     1    450       1.63       1.34       0.17
     9     1    514       1.63       1.36       0.17
    10     1    578       1.63       1.37       0.16
    11     1    642       1.63       1.39       0.14
    12     1    706       1.63       1.41       0.13
    13     1    770       1.63       1.43       0.12
    14     1    834       1.63       1.44       0.11
    15     1    898       1.63       1.46       0.11

 Time of computation ->  20230101.071500      in sec:      26100.
 accuracy OK in  96.90 % of wet grid points ( 99.50 % required)

 accuracy OK in  99.19 % of wet grid points ( 99.50 % required)

 accuracy OK in  99.93 % of wet grid points ( 99.50 % required)

  ** WARNING : Differences in wave height at the boundary
 Relative difference between input and computation >=   0.10
                         Hs[m]      Hs[m]      Hs[-]
     ix    iy  index   (input) (computed) (relative)
  --------------------------------------------------
     1     1      2       1.63       1.14       0.30
     2     1     66       1.63       1.35       0.17
     3     1    130       1.63       1.37       0.16
     4     1    194       1.63       1.33       0.18
     5     1    258       1.63       1.33       0.19
     6     1    322       1.63       1.33       0.18
     7     1    386       1.63       1.34       0.18
     8     1    450       1.63       1.35       0.17
     9     1    514       1.63       1.36       0.16
    10     1    578       1.63       1.38       0.15
    11     1    642       1.63       1.40       0.14
    12     1    706       1.63       1.42       0.13
    13     1    770       1.63       1.44       0.12
    14     1    834       1.63       1.45       0.11

 Time of computation ->  20230101.073000      in sec:      27000.
 accuracy OK in  96.90 % of wet grid points ( 99.50 % required)

 accuracy OK in  99.19 % of wet grid points ( 99.50 % required)

 accuracy OK in  99.93 % of wet grid points ( 99.50 % required)

  ** WARNING : Differences in wave height at the boundary
 Relative difference between input and computation >=   0.10
                         Hs[m]      Hs[m]      Hs[-]
     ix    iy  index   (input) (computed) (relative)
  --------------------------------------------------
     1     1      2       1.63       1.14       0.30
     2     1     66       1.63       1.34       0.18
     3     1    130       1.63       1.37       0.16
     4     1    194       1.63       1.33       0.19
     5     1    258       1.63       1.33       0.18
     6     1    322       1.63       1.34       0.18
     7     1    386       1.63       1.35       0.17
     8     1    450       1.63       1.36       0.17
     9     1    514       1.63       1.37       0.16
    10     1    578       1.63       1.39       0.15
    11     1    642       1.63       1.41       0.13
    12     1    706       1.63       1.43       0.12
    13     1    770       1.63       1.45       0.11
    14     1    834       1.63       1.47       0.10

 Time of computation ->  20230101.074500      in sec:      27900.
 accuracy OK in  96.97 % of wet grid points ( 99.50 % required)

 accuracy OK in  99.13 % of wet grid points ( 99.50 % required)

 accuracy OK in  99.93 % of wet grid points ( 99.50 % required)

  ** WARNING : Differences in wave height at the boundary
 Relative difference between input and computation >=   0.10
                         Hs[m]      Hs[m]      Hs[-]
     ix    iy  index   (input) (computed) (relative)
  --------------------------------------------------
     1     1      2       1.63       1.14       0.30
     2     1     66       1.63       1.35       0.18
     3     1    130       1.63       1.37       0.16
     4     1    194       1.63       1.33       0.18
     5     1    258       1.63       1.34       0.18
     6     1    322       1.63       1.34       0.18
     7     1    386       1.63       1.35       0.17
     8     1    450       1.63       1.37       0.16
     9     1    514       1.63       1.38       0.16
    10     1    578       1.63       1.40       0.14
    11     1    642       1.63       1.43       0.13
    12     1    706       1.63       1.45       0.11
    13     1    770       1.63       1.46       0.10

 Time of computation ->  20230101.080000      in sec:      28800.
 accuracy OK in  96.97 % of wet grid points ( 99.50 % required)

 accuracy OK in  99.06 % of wet grid points ( 99.50 % required)

 accuracy OK in  99.93 % of wet grid points ( 99.50 % required)

  ** WARNING : Differences in wave height at the boundary
 Relative difference between input and computation >=   0.10
                         Hs[m]      Hs[m]      Hs[-]
     ix    iy  index   (input) (computed) (relative)
  --------------------------------------------------
     1     1      2       1.64       1.14       0.30
     2     1     66       1.64       1.35       0.18
     3     1    130       1.64       1.37       0.16
     4     1    194       1.64       1.34       0.18
     5     1    258       1.64       1.34       0.18
     6     1    322       1.64       1.35       0.18
     7     1    386       1.64       1.36       0.17
     8     1    450       1.64       1.37       0.16
     9     1    514       1.64       1.39       0.15
    10     1    578       1.64       1.41       0.14
    11     1    642       1.64       1.44       0.12
    12     1    706       1.64       1.46       0.11

 Time of computation ->  20230101.081500      in sec:      29700.
 accuracy OK in  96.97 % of wet grid points ( 99.50 % required)

 accuracy OK in  99.06 % of wet grid points ( 99.50 % required)

 accuracy OK in  99.93 % of wet grid points ( 99.50 % required)

  ** WARNING : Differences in wave height at the boundary
 Relative difference between input and computation >=   0.10
                         Hs[m]      Hs[m]      Hs[-]
     ix    iy  index   (input) (computed) (relative)
  --------------------------------------------------
     1     1      2       1.64       1.14       0.30
     2     1     66       1.64       1.35       0.18
     3     1    130       1.64       1.37       0.16
     4     1    194       1.64       1.34       0.18
     5     1    258       1.64       1.35       0.18
     6     1    322       1.64       1.36       0.17
     7     1    386       1.64       1.37       0.17
     8     1    450       1.64       1.38       0.16
     9     1    514       1.64       1.40       0.15
    10     1    578       1.64       1.42       0.13
    11     1    642       1.64       1.45       0.12
    12     1    706       1.64       1.47       0.10

 Time of computation ->  20230101.083000      in sec:      30600.
 accuracy OK in  96.97 % of wet grid points ( 99.50 % required)

 accuracy OK in  98.99 % of wet grid points ( 99.50 % required)

 accuracy OK in  99.93 % of wet grid points ( 99.50 % required)

  ** WARNING : Differences in wave height at the boundary
 Relative difference between input and computation >=   0.10
                         Hs[m]      Hs[m]      Hs[-]
     ix    iy  index   (input) (computed) (relative)
  --------------------------------------------------
     1     1      2       1.64       1.14       0.30
     2     1     66       1.64       1.35       0.18
     3     1    130       1.64       1.38       0.16
     4     1    194       1.64       1.35       0.18
     5     1    258       1.64       1.35       0.18
     6     1    322       1.64       1.36       0.17
     7     1    386       1.64       1.37       0.16
     8     1    450       1.64       1.39       0.16
     9     1    514       1.64       1.40       0.14
    10     1    578       1.64       1.43       0.13
    11     1    642       1.64       1.46       0.11

 Time of computation ->  20230101.084500      in sec:      31500.
 accuracy OK in  96.97 % of wet grid points ( 99.50 % required)

 accuracy OK in  98.92 % of wet grid points ( 99.50 % required)

 accuracy OK in  99.93 % of wet grid points ( 99.50 % required)

  ** WARNING : Differences in wave height at the boundary
 Relative difference between input and computation >=   0.10
                         Hs[m]      Hs[m]      Hs[-]
     ix    iy  index   (input) (computed) (relative)
  --------------------------------------------------
     1     1      2       1.64       1.14       0.31
     2     1     66       1.64       1.35       0.18
     3     1    130       1.64       1.38       0.16
     4     1    194       1.64       1.35       0.18
     5     1    258       1.64       1.36       0.17
     6     1    322       1.64       1.37       0.17
     7     1    386       1.64       1.38       0.16
     8     1    450       1.64       1.39       0.15
     9     1    514       1.64       1.41       0.14
    10     1    578       1.64       1.44       0.12
    11     1    642       1.64       1.47       0.11

 Time of computation ->  20230101.090000      in sec:      32400.
 accuracy OK in  96.97 % of wet grid points ( 99.50 % required)

 accuracy OK in  98.86 % of wet grid points ( 99.50 % required)

 accuracy OK in  99.93 % of wet grid points ( 99.50 % required)

  ** WARNING : Differences in wave height at the boundary
 Relative difference between input and computation >=   0.10
                         Hs[m]      Hs[m]      Hs[-]
     ix    iy  index   (input) (computed) (relative)
  --------------------------------------------------
     1     1      2       1.64       1.14       0.31
     2     1     66       1.64       1.36       0.18
     3     1    130       1.64       1.38       0.16
     4     1    194       1.64       1.35       0.18
     5     1    258       1.64       1.36       0.17
     6     1    322       1.64       1.37       0.17
     7     1    386       1.64       1.38       0.16
     8     1    450       1.64       1.40       0.15
     9     1    514       1.64       1.42       0.14
    10     1    578       1.64       1.45       0.12
    11     1    642       1.64       1.47       0.10

 Time of computation ->  20230101.091500      in sec:      33300.
 accuracy OK in  96.97 % of wet grid points ( 99.50 % required)

 accuracy OK in  98.92 % of wet grid points ( 99.50 % required)

 accuracy OK in  99.93 % of wet grid points ( 99.50 % required)

  ** WARNING : Differences in wave height at the boundary
 Relative difference between input and computation >=   0.10
                         Hs[m]      Hs[m]      Hs[-]
     ix    iy  index   (input) (computed) (relative)
  --------------------------------------------------
     1     1      2       1.65       1.14       0.31
     2     1     66       1.65       1.36       0.17
     3     1    130       1.65       1.38       0.16
     4     1    194       1.65       1.36       0.17
     5     1    258       1.65       1.37       0.17
     6     1    322       1.65       1.38       0.16
     7     1    386       1.65       1.39       0.16
     8     1    450       1.65       1.40       0.15
     9     1    514       1.65       1.42       0.13
    10     1    578       1.65       1.45       0.12

 Time of computation ->  20230101.093000      in sec:      34200.
 accuracy OK in  96.97 % of wet grid points ( 99.50 % required)

 accuracy OK in  98.86 % of wet grid points ( 99.50 % required)

 accuracy OK in  99.93 % of wet grid points ( 99.50 % required)

  ** WARNING : Differences in wave height at the boundary
 Relative difference between input and computation >=   0.10
                         Hs[m]      Hs[m]      Hs[-]
     ix    iy  index   (input) (computed) (relative)
  --------------------------------------------------
     1     1      2       1.65       1.14       0.31
     2     1     66       1.65       1.36       0.17
     3     1    130       1.65       1.39       0.16
     4     1    194       1.65       1.36       0.17
     5     1    258       1.65       1.37       0.17
     6     1    322       1.65       1.38       0.16
     7     1    386       1.65       1.39       0.15
     8     1    450       1.65       1.41       0.14
     9     1    514       1.65       1.43       0.13
    10     1    578       1.65       1.46       0.11

 Time of computation ->  20230101.094500      in sec:      35100.
 accuracy OK in  96.97 % of wet grid points ( 99.50 % required)

 accuracy OK in  98.86 % of wet grid points ( 99.50 % required)

 accuracy OK in  99.93 % of wet grid points ( 99.50 % required)

  ** WARNING : Differences in wave height at the boundary
 Relative difference between input and computation >=   0.10
                         Hs[m]      Hs[m]      Hs[-]
     ix    iy  index   (input) (computed) (relative)
  --------------------------------------------------
     1     1      2       1.65       1.14       0.31
     2     1     66       1.65       1.36       0.17
     3     1    130       1.65       1.39       0.16
     4     1    194       1.65       1.37       0.17
     5     1    258       1.65       1.38       0.17
     6     1    322       1.65       1.39       0.16
     7     1    386       1.65       1.40       0.15
     8     1    450       1.65       1.42       0.14
     9     1    514       1.65       1.44       0.13
    10     1    578       1.65       1.47       0.11

 Time of computation ->  20230101.100000      in sec:      36000.
 accuracy OK in  96.97 % of wet grid points ( 99.50 % required)

 accuracy OK in  98.79 % of wet grid points ( 99.50 % required)

 accuracy OK in  99.93 % of wet grid points ( 99.50 % required)

  ** WARNING : Differences in wave height at the boundary
 Relative difference between input and computation >=   0.10
                         Hs[m]      Hs[m]      Hs[-]
     ix    iy  index   (input) (computed) (relative)
  --------------------------------------------------
     1     1      2       1.65       1.14       0.31
     2     1     66       1.65       1.37       0.17
     3     1    130       1.65       1.39       0.16
     4     1    194       1.65       1.37       0.17
     5     1    258       1.65       1.38       0.16
     6     1    322       1.65       1.39       0.16
     7     1    386       1.65       1.40       0.15
     8     1    450       1.65       1.42       0.14
     9     1    514       1.65       1.44       0.13
    10     1    578       1.65       1.48       0.11

 Time of computation ->  20230101.101500      in sec:      36900.
 accuracy OK in  96.90 % of wet grid points ( 99.50 % required)

 accuracy OK in  98.79 % of wet grid points ( 99.50 % required)

 accuracy OK in  99.93 % of wet grid points ( 99.50 % required)

  ** WARNING : Differences in wave height at the boundary
 Relative difference between input and computation >=   0.10
                         Hs[m]      Hs[m]      Hs[-]
     ix    iy  index   (input) (computed) (relative)
  --------------------------------------------------
     1     1      2       1.65       1.14       0.31
     2     1     66       1.65       1.37       0.17
     3     1    130       1.65       1.40       0.16
     4     1    194       1.65       1.38       0.17
     5     1    258       1.65       1.38       0.16
     6     1    322       1.65       1.39       0.16
     7     1    386       1.65       1.41       0.15
     8     1    450       1.65       1.43       0.14
     9     1    514       1.65       1.45       0.12
    10     1    578       1.65       1.48       0.10

 Time of computation ->  20230101.103000      in sec:      37800.
 accuracy OK in  96.97 % of wet grid points ( 99.50 % required)

 accuracy OK in  98.72 % of wet grid points ( 99.50 % required)

 accuracy OK in  99.93 % of wet grid points ( 99.50 % required)

  ** WARNING : Differences in wave height at the boundary
 Relative difference between input and computation >=   0.10
                         Hs[m]      Hs[m]      Hs[-]
     ix    iy  index   (input) (computed) (relative)
  --------------------------------------------------
     1     1      2       1.66       1.14       0.31
     2     1     66       1.66       1.37       0.17
     3     1    130       1.66       1.40       0.15
     4     1    194       1.66       1.38       0.17
     5     1    258       1.66       1.39       0.16
     6     1    322       1.66       1.40       0.16
     7     1    386       1.66       1.41       0.15
     8     1    450       1.66       1.43       0.14
     9     1    514       1.66       1.45       0.12
    10     1    578       1.66       1.49       0.10

 Time of computation ->  20230101.104500      in sec:      38700.
 accuracy OK in  96.90 % of wet grid points ( 99.50 % required)

 accuracy OK in  98.72 % of wet grid points ( 99.50 % required)

 accuracy OK in  99.93 % of wet grid points ( 99.50 % required)

  ** WARNING : Differences in wave height at the boundary
 Relative difference between input and computation >=   0.10
                         Hs[m]      Hs[m]      Hs[-]
     ix    iy  index   (input) (computed) (relative)
  --------------------------------------------------
     1     1      2       1.66       1.14       0.31
     2     1     66       1.66       1.37       0.17
     3     1    130       1.66       1.40       0.15
     4     1    194       1.66       1.38       0.17
     5     1    258       1.66       1.39       0.16
     6     1    322       1.66       1.40       0.15
     7     1    386       1.66       1.42       0.14
     8     1    450       1.66       1.43       0.13
     9     1    514       1.66       1.46       0.12

 Time of computation ->  20230101.110000      in sec:      39600.
 accuracy OK in  96.84 % of wet grid points ( 99.50 % required)

 accuracy OK in  98.65 % of wet grid points ( 99.50 % required)

 accuracy OK in  99.93 % of wet grid points ( 99.50 % required)

  ** WARNING : Differences in wave height at the boundary
 Relative difference between input and computation >=   0.10
                         Hs[m]      Hs[m]      Hs[-]
     ix    iy  index   (input) (computed) (relative)
  --------------------------------------------------
     1     1      2       1.66       1.14       0.31
     2     1     66       1.66       1.38       0.17
     3     1    130       1.66       1.41       0.15
     4     1    194       1.66       1.38       0.17
     5     1    258       1.66       1.39       0.16
     6     1    322       1.66       1.41       0.15
     7     1    386       1.66       1.42       0.14
     8     1    450       1.66       1.44       0.13
     9     1    514       1.66       1.46       0.12

 Time of computation ->  20230101.111500      in sec:      40500.
 accuracy OK in  96.70 % of wet grid points ( 99.50 % required)

 accuracy OK in  98.65 % of wet grid points ( 99.50 % required)

 accuracy OK in  99.93 % of wet grid points ( 99.50 % required)

  ** WARNING : Differences in wave height at the boundary
 Relative difference between input and computation >=   0.10
                         Hs[m]      Hs[m]      Hs[-]
     ix    iy  index   (input) (computed) (relative)
  --------------------------------------------------
     1     1      2       1.66       1.14       0.31
     2     1     66       1.66       1.38       0.17
     3     1    130       1.66       1.41       0.15
     4     1    194       1.66       1.39       0.16
     5     1    258       1.66       1.40       0.16
     6     1    322       1.66       1.41       0.15
     7     1    386       1.66       1.42       0.14
     8     1    450       1.66       1.44       0.13
     9     1    514       1.66       1.47       0.12

 Time of computation ->  20230101.113000      in sec:      41400.
 accuracy OK in  96.57 % of wet grid points ( 99.50 % required)

 accuracy OK in  98.59 % of wet grid points ( 99.50 % required)

 accuracy OK in  99.93 % of wet grid points ( 99.50 % required)

  ** WARNING : Differences in wave height at the boundary
 Relative difference between input and computation >=   0.10
                         Hs[m]      Hs[m]      Hs[-]
     ix    iy  index   (input) (computed) (relative)
  --------------------------------------------------
     1     1      2       1.66       1.14       0.32
     2     1     66       1.66       1.38       0.17
     3     1    130       1.66       1.41       0.15
     4     1    194       1.66       1.39       0.16
     5     1    258       1.66       1.40       0.16
     6     1    322       1.66       1.41       0.15
     7     1    386       1.66       1.43       0.14
     8     1    450       1.66       1.45       0.13
[...]
 accuracy OK in  96.43 % of wet grid points ( 99.50 % required)

 accuracy OK in  97.38 % of wet grid points ( 99.50 % required)

 accuracy OK in 100.00 % of wet grid points ( 99.50 % required)

  ** WARNING : Differences in wave height at the boundary
 Relative difference between input and computation >=   0.10
                         Hs[m]      Hs[m]      Hs[-]
     ix    iy  index   (input) (computed) (relative)
  --------------------------------------------------
     1     1      2       1.71       1.12       0.34
     2     1     66       1.71       1.43       0.16
     3     1    130       1.71       1.47       0.14
     4     1    194       1.71       1.45       0.15
     5     1    258       1.71       1.46       0.14
     6     1    322       1.71       1.48       0.13
     7     1    386       1.71       1.50       0.12
     8     1    450       1.71       1.53       0.11

 Time of computation ->  20230103.130000      in sec:     219600.
 accuracy OK in  96.43 % of wet grid points ( 99.50 % required)

 accuracy OK in  97.31 % of wet grid points ( 99.50 % required)

 accuracy OK in 100.00 % of wet grid points ( 99.50 % required)

  ** WARNING : Differences in wave height at the boundary
 Relative difference between input and computation >=   0.10
                         Hs[m]      Hs[m]      Hs[-]
     ix    iy  index   (input) (computed) (relative)
  --------------------------------------------------
     1     1      2       1.70       1.12       0.34
     2     1     66       1.70       1.42       0.16
     3     1    130       1.70       1.46       0.14
     4     1    194       1.70       1.44       0.15
     5     1    258       1.70       1.46       0.14
     6     1    322       1.70       1.48       0.13
     7     1    386       1.70       1.50       0.12
     8     1    450       1.70       1.52       0.10

 Time of computation ->  20230103.131500      in sec:     220500.
 accuracy OK in  96.43 % of wet grid points ( 99.50 % required)

 accuracy OK in  97.31 % of wet grid points ( 99.50 % required)

 accuracy OK in 100.00 % of wet grid points ( 99.50 % required)

  ** WARNING : Differences in wave height at the boundary
 Relative difference between input and computation >=   0.10
                         Hs[m]      Hs[m]      Hs[-]
     ix    iy  index   (input) (computed) (relative)
  --------------------------------------------------
     1     1      2       1.70       1.12       0.34
     2     1     66       1.70       1.42       0.16
     3     1    130       1.70       1.46       0.14
     4     1    194       1.70       1.44       0.15
     5     1    258       1.70       1.46       0.14
     6     1    322       1.70       1.48       0.13
     7     1    386       1.70       1.50       0.12
     8     1    450       1.70       1.52       0.10

 Time of computation ->  20230103.133000      in sec:     221400.
 accuracy OK in  96.43 % of wet grid points ( 99.50 % required)

 accuracy OK in  97.24 % of wet grid points ( 99.50 % required)

 accuracy OK in 100.00 % of wet grid points ( 99.50 % required)

  ** WARNING : Differences in wave height at the boundary
 Relative difference between input and computation >=   0.10
                         Hs[m]      Hs[m]      Hs[-]
     ix    iy  index   (input) (computed) (relative)
  --------------------------------------------------
     1     1      2       1.69       1.12       0.34
     2     1     66       1.69       1.42       0.16
     3     1    130       1.69       1.46       0.14
     4     1    194       1.69       1.44       0.15
     5     1    258       1.69       1.45       0.14
     6     1    322       1.69       1.47       0.13
     7     1    386       1.69       1.50       0.12
     8     1    450       1.69       1.52       0.10

 Time of computation ->  20230103.134500      in sec:     222300.
 accuracy OK in  96.43 % of wet grid points ( 99.50 % required)

 accuracy OK in  97.24 % of wet grid points ( 99.50 % required)

 accuracy OK in 100.00 % of wet grid points ( 99.50 % required)

  ** WARNING : Differences in wave height at the boundary
 Relative difference between input and computation >=   0.10
                         Hs[m]      Hs[m]      Hs[-]
     ix    iy  index   (input) (computed) (relative)
  --------------------------------------------------
     1     1      2       1.69       1.12       0.34
     2     1     66       1.69       1.42       0.16
     3     1    130       1.69       1.45       0.14
     4     1    194       1.69       1.44       0.15
     5     1    258       1.69       1.45       0.14
     6     1    322       1.69       1.47       0.13
     7     1    386       1.69       1.49       0.12
     8     1    450       1.69       1.52       0.10

 Time of computation ->  20230103.140000      in sec:     223200.
 accuracy OK in  96.43 % of wet grid points ( 99.50 % required)

 accuracy OK in  97.24 % of wet grid points ( 99.50 % required)

 accuracy OK in 100.00 % of wet grid points ( 99.50 % required)

  ** WARNING : Differences in wave height at the boundary
 Relative difference between input and computation >=   0.10
                         Hs[m]      Hs[m]      Hs[-]
     ix    iy  index   (input) (computed) (relative)
  --------------------------------------------------
     1     1      2       1.68       1.12       0.33
     2     1     66       1.68       1.41       0.16
     3     1    130       1.68       1.45       0.14
     4     1    194       1.68       1.44       0.15
     5     1    258       1.68       1.45       0.14
     6     1    322       1.68       1.47       0.13
     7     1    386       1.68       1.49       0.11

 Time of computation ->  20230103.141500      in sec:     224100.
 accuracy OK in  96.43 % of wet grid points ( 99.50 % required)

 accuracy OK in  97.17 % of wet grid points ( 99.50 % required)

 accuracy OK in 100.00 % of wet grid points ( 99.50 % required)

  ** WARNING : Differences in wave height at the boundary
 Relative difference between input and computation >=   0.10
                         Hs[m]      Hs[m]      Hs[-]
     ix    iy  index   (input) (computed) (relative)
  --------------------------------------------------
     1     1      2       1.68       1.12       0.33
     2     1     66       1.68       1.41       0.16
     3     1    130       1.68       1.45       0.14
     4     1    194       1.68       1.43       0.15
     5     1    258       1.68       1.45       0.14
     6     1    322       1.68       1.47       0.13
     7     1    386       1.68       1.49       0.11

 Time of computation ->  20230103.143000      in sec:     225000.
 accuracy OK in  96.43 % of wet grid points ( 99.50 % required)

 accuracy OK in  97.24 % of wet grid points ( 99.50 % required)

 accuracy OK in 100.00 % of wet grid points ( 99.50 % required)

  ** WARNING : Differences in wave height at the boundary
 Relative difference between input and computation >=   0.10
                         Hs[m]      Hs[m]      Hs[-]
     ix    iy  index   (input) (computed) (relative)
  --------------------------------------------------
     1     1      2       1.68       1.13       0.33
     2     1     66       1.68       1.41       0.16
     3     1    130       1.68       1.44       0.14
     4     1    194       1.68       1.43       0.15
     5     1    258       1.68       1.45       0.14
     6     1    322       1.68       1.47       0.12
     7     1    386       1.68       1.49       0.11

 Time of computation ->  20230103.144500      in sec:     225900.
 accuracy OK in  96.43 % of wet grid points ( 99.50 % required)

 accuracy OK in  97.24 % of wet grid points ( 99.50 % required)

 accuracy OK in 100.00 % of wet grid points ( 99.50 % required)

  ** WARNING : Differences in wave height at the boundary
 Relative difference between input and computation >=   0.10
                         Hs[m]      Hs[m]      Hs[-]
     ix    iy  index   (input) (computed) (relative)
  --------------------------------------------------
     1     1      2       1.67       1.13       0.33
     2     1     66       1.67       1.41       0.16
     3     1    130       1.67       1.44       0.14
     4     1    194       1.67       1.43       0.14
     5     1    258       1.67       1.45       0.13
     6     1    322       1.67       1.46       0.12
     7     1    386       1.67       1.49       0.11

 Time of computation ->  20230103.150000      in sec:     226800.
 accuracy OK in  96.43 % of wet grid points ( 99.50 % required)

 accuracy OK in  97.31 % of wet grid points ( 99.50 % required)

 accuracy OK in 100.00 % of wet grid points ( 99.50 % required)

  ** WARNING : Differences in wave height at the boundary
 Relative difference between input and computation >=   0.10
                         Hs[m]      Hs[m]      Hs[-]
     ix    iy  index   (input) (computed) (relative)
  --------------------------------------------------
     1     1      2       1.67       1.13       0.32
     2     1     66       1.67       1.40       0.16
     3     1    130       1.67       1.44       0.14
     4     1    194       1.67       1.43       0.14
     5     1    258       1.67       1.44       0.13
     6     1    322       1.67       1.46       0.12
     7     1    386       1.67       1.49       0.11

 Time of computation ->  20230103.151500      in sec:     227700.
 accuracy OK in  96.43 % of wet grid points ( 99.50 % required)

 accuracy OK in  97.24 % of wet grid points ( 99.50 % required)

 accuracy OK in 100.00 % of wet grid points ( 99.50 % required)

  ** WARNING : Differences in wave height at the boundary
 Relative difference between input and computation >=   0.10
                         Hs[m]      Hs[m]      Hs[-]
     ix    iy  index   (input) (computed) (relative)
  --------------------------------------------------
     1     1      2       1.66       1.13       0.32
     2     1     66       1.66       1.40       0.16
     3     1    130       1.66       1.44       0.14
     4     1    194       1.66       1.43       0.14
     5     1    258       1.66       1.44       0.13
     6     1    322       1.66       1.46       0.12
     7     1    386       1.66       1.48       0.11

 Time of computation ->  20230103.153000      in sec:     228600.
 accuracy OK in  96.43 % of wet grid points ( 99.50 % required)

 accuracy OK in  97.24 % of wet grid points ( 99.50 % required)

 accuracy OK in 100.00 % of wet grid points ( 99.50 % required)

  ** WARNING : Differences in wave height at the boundary
 Relative difference between input and computation >=   0.10
                         Hs[m]      Hs[m]      Hs[-]
     ix    iy  index   (input) (computed) (relative)
  --------------------------------------------------
     1     1      2       1.66       1.13       0.32
     2     1     66       1.66       1.40       0.16
     3     1    130       1.66       1.43       0.14
     4     1    194       1.66       1.42       0.14
     5     1    258       1.66       1.44       0.13
     6     1    322       1.66       1.46       0.12
     7     1    386       1.66       1.48       0.11

 Time of computation ->  20230103.154500      in sec:     229500.
 accuracy OK in  96.43 % of wet grid points ( 99.50 % required)

 accuracy OK in  97.17 % of wet grid points ( 99.50 % required)

 accuracy OK in 100.00 % of wet grid points ( 99.50 % required)

  ** WARNING : Differences in wave height at the boundary
 Relative difference between input and computation >=   0.10
                         Hs[m]      Hs[m]      Hs[-]
     ix    iy  index   (input) (computed) (relative)
  --------------------------------------------------
     1     1      2       1.65       1.13       0.32
     2     1     66       1.65       1.40       0.15
     3     1    130       1.65       1.43       0.13
     4     1    194       1.65       1.42       0.14
     5     1    258       1.65       1.44       0.13
     6     1    322       1.65       1.46       0.12
     7     1    386       1.65       1.48       0.10

 Time of computation ->  20230103.160000      in sec:     230400.
 accuracy OK in  96.43 % of wet grid points ( 99.50 % required)

 accuracy OK in  97.17 % of wet grid points ( 99.50 % required)

 accuracy OK in 100.00 % of wet grid points ( 99.50 % required)

  ** WARNING : Differences in wave height at the boundary
 Relative difference between input and computation >=   0.10
                         Hs[m]      Hs[m]      Hs[-]
     ix    iy  index   (input) (computed) (relative)
  --------------------------------------------------
     1     1      2       1.65       1.13       0.31
     2     1     66       1.65       1.39       0.15
     3     1    130       1.65       1.43       0.13
     4     1    194       1.65       1.42       0.14
     5     1    258       1.65       1.44       0.13
     6     1    322       1.65       1.46       0.12
     7     1    386       1.65       1.48       0.10

 Time of computation ->  20230103.161500      in sec:     231300.
 accuracy OK in  96.43 % of wet grid points ( 99.50 % required)

 accuracy OK in  97.11 % of wet grid points ( 99.50 % required)

 accuracy OK in 100.00 % of wet grid points ( 99.50 % required)

  ** WARNING : Differences in wave height at the boundary
 Relative difference between input and computation >=   0.10
                         Hs[m]      Hs[m]      Hs[-]
     ix    iy  index   (input) (computed) (relative)
  --------------------------------------------------
     1     1      2       1.64       1.13       0.31
     2     1     66       1.64       1.39       0.15
     3     1    130       1.64       1.42       0.13
     4     1    194       1.64       1.42       0.14
     5     1    258       1.64       1.43       0.13
     6     1    322       1.64       1.45       0.12
     7     1    386       1.64       1.48       0.10

 Time of computation ->  20230103.163000      in sec:     232200.
 accuracy OK in  96.43 % of wet grid points ( 99.50 % required)

 accuracy OK in  97.11 % of wet grid points ( 99.50 % required)

 accuracy OK in 100.00 % of wet grid points ( 99.50 % required)

  ** WARNING : Differences in wave height at the boundary
 Relative difference between input and computation >=   0.10
                         Hs[m]      Hs[m]      Hs[-]
     ix    iy  index   (input) (computed) (relative)
  --------------------------------------------------
     1     1      2       1.64       1.13       0.31
     2     1     66       1.64       1.39       0.15
     3     1    130       1.64       1.42       0.13
     4     1    194       1.64       1.42       0.14
     5     1    258       1.64       1.43       0.13
     6     1    322       1.64       1.45       0.11
     7     1    386       1.64       1.47       0.10

 Time of computation ->  20230103.164500      in sec:     233100.
 accuracy OK in  96.43 % of wet grid points ( 99.50 % required)

 accuracy OK in  97.11 % of wet grid points ( 99.50 % required)

 accuracy OK in 100.00 % of wet grid points ( 99.50 % required)

  ** WARNING : Differences in wave height at the boundary
 Relative difference between input and computation >=   0.10
                         Hs[m]      Hs[m]      Hs[-]
     ix    iy  index   (input) (computed) (relative)
  --------------------------------------------------
     1     1      2       1.63       1.14       0.30
     2     1     66       1.63       1.39       0.15
     3     1    130       1.63       1.42       0.13
     4     1    194       1.63       1.42       0.13
     5     1    258       1.63       1.43       0.12
     6     1    322       1.63       1.45       0.11

 Time of computation ->  20230103.170000      in sec:     234000.
 accuracy OK in  96.43 % of wet grid points ( 99.50 % required)

 accuracy OK in  97.11 % of wet grid points ( 99.50 % required)

 accuracy OK in 100.00 % of wet grid points ( 99.50 % required)

  ** WARNING : Differences in wave height at the boundary
 Relative difference between input and computation >=   0.10
                         Hs[m]      Hs[m]      Hs[-]
     ix    iy  index   (input) (computed) (relative)
  --------------------------------------------------
     1     1      2       1.63       1.14       0.30
     2     1     66       1.63       1.39       0.15
     3     1    130       1.63       1.42       0.13
     4     1    194       1.63       1.41       0.13
     5     1    258       1.63       1.43       0.12
     6     1    322       1.63       1.45       0.11

 Time of computation ->  20230103.171500      in sec:     234900.
 accuracy OK in  96.43 % of wet grid points ( 99.50 % required)

 accuracy OK in  97.11 % of wet grid points ( 99.50 % required)

 accuracy OK in 100.00 % of wet grid points ( 99.50 % required)

  ** WARNING : Differences in wave height at the boundary
 Relative difference between input and computation >=   0.10
                         Hs[m]      Hs[m]      Hs[-]
     ix    iy  index   (input) (computed) (relative)
  --------------------------------------------------
     1     1      2       1.62       1.14       0.30
     2     1     66       1.62       1.38       0.15
     3     1    130       1.62       1.41       0.13
     4     1    194       1.62       1.41       0.13
     5     1    258       1.62       1.43       0.12
     6     1    322       1.62       1.45       0.11

 Time of computation ->  20230103.173000      in sec:     235800.
 accuracy OK in  96.43 % of wet grid points ( 99.50 % required)

 accuracy OK in  97.04 % of wet grid points ( 99.50 % required)

 accuracy OK in 100.00 % of wet grid points ( 99.50 % required)

  ** WARNING : Differences in wave height at the boundary
 Relative difference between input and computation >=   0.10
                         Hs[m]      Hs[m]      Hs[-]
     ix    iy  index   (input) (computed) (relative)
  --------------------------------------------------
     1     1      2       1.62       1.14       0.30
     2     1     66       1.62       1.38       0.15
     3     1    130       1.62       1.41       0.13
     4     1    194       1.62       1.41       0.13
     5     1    258       1.62       1.43       0.12
     6     1    322       1.62       1.45       0.11

 Time of computation ->  20230103.174500      in sec:     236700.
 accuracy OK in  96.43 % of wet grid points ( 99.50 % required)

 accuracy OK in  96.90 % of wet grid points ( 99.50 % required)

 accuracy OK in 100.00 % of wet grid points ( 99.50 % required)

  ** WARNING : Differences in wave height at the boundary
 Relative difference between input and computation >=   0.10
                         Hs[m]      Hs[m]      Hs[-]
     ix    iy  index   (input) (computed) (relative)
  --------------------------------------------------
     1     1      2       1.61       1.14       0.29
     2     1     66       1.61       1.38       0.15
     3     1    130       1.61       1.41       0.13
     4     1    194       1.61       1.41       0.13
     5     1    258       1.61       1.42       0.12
     6     1    322       1.61       1.44       0.11

 Time of computation ->  20230103.180000      in sec:     237600.
 accuracy OK in  96.43 % of wet grid points ( 99.50 % required)

 accuracy OK in  96.90 % of wet grid points ( 99.50 % required)

 accuracy OK in 100.00 % of wet grid points ( 99.50 % required)

  ** WARNING : Differences in wave height at the boundary
 Relative difference between input and computation >=   0.10
                         Hs[m]      Hs[m]      Hs[-]
     ix    iy  index   (input) (computed) (relative)
  --------------------------------------------------
     1     1      2       1.61       1.14       0.29
     2     1     66       1.61       1.38       0.14
     3     1    130       1.61       1.41       0.12
     4     1    194       1.61       1.41       0.13
     5     1    258       1.61       1.42       0.12
     6     1    322       1.61       1.44       0.10

    
 
    
 STOP
